Name: Cloud
Type: Water
Wavelength Range: 0.2-4.4 by 0.01 micron
Origin: King 1997 - MODIS
Description: Spherically integrated cloud albedo
Measurement: Model spherical
X Units: Wavelength (micrometers)
Y Units: Reflectance (percent)
wavelength	value
0.2	0.613
0.22	0.609332
0.24	0.606913
0.26	0.605582
0.28	0.605174
0.3	0.605527
0.32	0.606478
0.34	0.607863
0.36	0.60952
0.38	0.611285
0.4	0.613079
0.42	0.614784
0.44	0.615577
0.46	0.615908
0.48	0.616273
0.5	0.61699
0.52	0.61778
0.54	0.618649
0.56	0.619598
0.58	0.62061
0.6	0.62165
0.62	0.622666
0.64	0.623682
0.66	0.624698
0.68	0.625714
0.7	0.62673
0.72	0.627698
0.74	0.628721
0.76	0.629934
0.78	0.63131
0.8	0.63266
0.82	0.633687
0.84	0.634687
0.86	0.636212
0.88	0.637922
0.9	0.63859
0.92	0.635394
0.94	0.631914
0.96	0.630859
0.98	0.632608
1	0.63521
1.02	0.637405
1.04	0.639423
1.06	0.641333
1.08	0.642578
1.1	0.64198
1.12	0.636252
1.14	0.629712
1.16	0.625449
1.18	0.624169
1.2	0.62419
1.22	0.625403
1.24	0.626507
1.26	0.626318
1.28	0.624178
1.3	0.61995
1.32	0.616952
1.34	0.602669
1.36	0.562257
1.38	0.517429
1.4	0.43041
1.42	0.375292
1.44	0.348369
1.46	0.348082
1.48	0.371177
1.5	0.4128
1.52	0.458328
1.54	0.485673
1.56	0.508189
1.58	0.523606
1.6	0.53862
1.62	0.548206
1.64	0.554115
1.66	0.558164
1.68	0.560455
1.7	0.55937
1.72	0.552304
1.74	0.54246
1.76	0.527847
1.78	0.516948
1.8	0.50981
1.82	0.498293
1.84	0.475977
1.86	0.40751
1.88	0.255458
1.9	0.216355
1.92	0.172273
1.94	0.147566
1.96	0.157787
1.98	0.187771
2	0.222055
2.02	0.255858
2.04	0.293656
2.06	0.318527
2.08	0.342857
2.1	0.367365
2.12	0.391597
2.14	0.408564
2.16	0.414017
2.18	0.416649
2.2	0.41746
2.22	0.416446
2.24	0.412375
2.26	0.405284
2.28	0.392336
2.3	0.37594
2.32	0.361155
2.34	0.347527
2.36	0.322927
2.38	0.300601
2.4	0.27215
2.42	0.251979
2.44	0.232152
2.46	0.211753
2.48	0.194722
2.5	0.17895
2.52	0.169494
2.54	0.163678
2.56	0.160344
2.58	0.155989
2.6	0.14379
2.62	0.12031
2.64	0.0958374
2.66	0.0696831
2.68	0.0468903
2.7	0.02644
2.72	0.0150436
2.74	0.00908471
2.76	0.00642413
2.78	0.00490144
2.8	0.00448515
2.82	0.00558132
2.84	0.00744296
2.86	0.00885995
2.88	0.00868274
2.9	0.00822
2.92	0.00831147
2.94	0.00852393
2.96	0.00874792
2.98	0.00892944
3	0.00907
3.02	0.00909688
3.04	0.00908344
3.06	0.00907
3.08	0.00907
3.1	0.00907
3.12	0.0090224
3.14	0.0090292
3.16	0.00918576
3.18	0.00950552
3.2	0.00992
3.22	0.0104011
3.24	0.0109226
3.26	0.0114034
3.28	0.0118707
3.3	0.01246
3.32	0.0128252
3.34	0.0139632
3.36	0.0167962
3.38	0.0215413
3.4	0.02771
3.42	0.0352854
3.44	0.0438775
3.46	0.0531198
3.48	0.0628361
3.5	0.07304
3.52	0.0836738
3.54	0.0946059
3.56	0.10581
3.58	0.117095
3.6	0.12811
3.62	0.138534
3.64	0.148199
3.66	0.156755
3.68	0.164119
3.7	0.17048
3.72	0.176197
3.74	0.180666
3.76	0.183251
3.78	0.183993
3.8	0.18361
3.82	0.182695
3.84	0.181169
3.86	0.179237
3.88	0.176967
3.9	0.17429
3.92	0.17108
3.94	0.167609
3.96	0.16402
3.98	0.160459
4	0.157071
4.02	0.153646
4.04	0.150324
4.06	0.147149
4.08	0.144164
4.1	0.141412
4.12	0.138935
4.14	0.136775
4.16	0.134976
4.18	0.13358
4.2	0.13263
4.22	0.132167
4.24	0.132236
4.26	0.132878
4.28	0.134135
4.3	0.136051
4.32	0.138668
4.34	0.142029
4.36	0.146176
4.38	0.151152
4.4	0.157
